REMARK  11 active torsions:
REMARK  status: ('A' for Active; 'I' for Inactive)
REMARK    1  A    between atoms: C_2  and  O_1 
REMARK    2  A    between atoms: C_5  and  C_10 
REMARK    3  A    between atoms: C_6  and  O_21 
REMARK       I    between atoms: C_10  and  N_8 
REMARK    4  A    between atoms: C_11  and  C_24 
REMARK       I    between atoms: C_11  and  N_13 
REMARK    5  A    between atoms: C_31  and  N_13 
REMARK    6  A    between atoms: C_19  and  C_26 
REMARK    7  A    between atoms: C_23  and  C_30 
REMARK    8  A    between atoms: C_31  and  C_32 
REMARK    9  A    between atoms: C_32  and  O_33 
REMARK   10  A    between atoms: C_34  and  O_33 
REMARK   11  A    between atoms: C_34  and  N_35 
ROOT
HETATM    1  O           1       7.406  -5.375  44.709  0.00  0.00    -0.360 OA
HETATM    2  H           1       6.695  -5.227  44.062  0.00  0.00     0.217 HD
ENDROOT
BRANCH   1   3
HETATM    3  C           1       7.954  -4.178  45.055  0.00  0.00     0.075 A 
HETATM    4  C           1       7.470  -3.051  44.510  0.00  0.00     0.074 A 
HETATM    5  C           1       7.952  -1.829  44.788  0.00  0.00     0.084 A 
HETATM    6  C           1       8.945  -1.731  45.691  0.00  0.00     0.066 A 
HETATM    7  C           1       9.464  -2.859  46.213  0.00  0.00     0.030 A 
HETATM    8  C           1       8.987  -4.080  45.915  0.00  0.00    -0.020 A 
BRANCH   5   9
HETATM    9  O           1       7.430  -0.750  44.150  0.00  0.00    -0.360 OA
HETATM   10  H           1       6.474  -0.874  44.030  0.00  0.00     0.217 HD
ENDBRANCH   5   9
BRANCH   6  11
HETATM   11  C           1       9.449  -0.530  46.095  0.00  0.00     0.257 C 
HETATM   12  O           1       9.714   0.310  45.264  0.00  0.00    -0.267 OA
HETATM   13  N           1       9.941  -0.381  47.381  0.00  0.00    -0.334 N 
HETATM   14  C           1      10.145  -1.463  48.353  0.00  0.00     0.180 C 
HETATM   15  C           1      10.719   0.779  47.804  0.00  0.00     0.136 C 
HETATM   16  C           1      11.478  -1.105  49.054  0.00  0.00     0.046 C 
HETATM   17  C           1      12.020   0.124  48.301  0.00  0.00     0.039 C 
BRANCH  14  18
HETATM   18  C           1       9.031  -1.629  49.390  0.00  0.00     0.240 C 
HETATM   19  O           1       8.554  -2.708  49.646  0.00  0.00    -0.271 OA
HETATM   20  N           1       8.599  -0.467  49.962  0.00  0.00    -0.357 N 
HETATM   21  H           1       8.979   0.415  49.624  0.00  0.00     0.162 HD
BRANCH  20  22
HETATM   22  C           1       7.523  -0.424  50.954  0.00  0.00     0.149 C 
BRANCH  22  23
HETATM   23  C           1       6.156  -0.406  50.268  0.00  0.00     0.189 C 
BRANCH  23  24
HETATM   24  O           1       5.164  -0.204  51.245  0.00  0.00    -0.361 OA
BRANCH  24  25
HETATM   25  C           1       3.864  -0.182  50.692  0.00  0.00     0.434 C 
BRANCH  25  26
HETATM   26  N           1       2.881   0.025  51.765  0.00  0.00     0.101 N 
HETATM   27  H           1       1.924  -0.176  51.428  0.00  0.00     0.315 HD
HETATM   28  H           1       3.051  -0.648  52.532  0.00  0.00     0.315 HD
ENDBRANCH  25  26
ENDBRANCH  24  25
ENDBRANCH  23  24
ENDBRANCH  22  23
ENDBRANCH  20  22
ENDBRANCH  14  18
BRANCH  17  29
HETATM   29  C           1      12.926  -0.163  47.110  0.00  0.00    -0.052 A 
HETATM   30  C           1      12.890  -1.312  46.411  0.00  0.00     0.007 A 
HETATM   31  C           1      13.692  -1.515  45.354  0.00  0.00     0.001 A 
HETATM   32  C           1      14.552  -0.562  44.969  0.00  0.00     0.000 A 
HETATM   33  C           1      14.601   0.592  45.649  0.00  0.00     0.001 A 
HETATM   34  C           1      13.793   0.784  46.703  0.00  0.00     0.007 A 
ENDBRANCH  17  29
ENDBRANCH   6  11
BRANCH   8  35
HETATM   35  C           1       9.595  -5.316  46.569  0.00  0.00     0.013 C 
HETATM   36  C           1       9.411  -5.285  48.096  0.00  0.00     0.015 C 
HETATM   37  C           1      11.075  -5.479  46.186  0.00  0.00     0.015 C 
ENDBRANCH   8  35
ENDBRANCH   1   3
TORSDOF 11
